Version 4
SHEET 1 1656 680
WIRE 560 -128 480 -128
WIRE 480 -80 480 -128
WIRE 560 -64 560 -128
WIRE 560 32 560 16
WIRE 736 32 560 32
WIRE 736 64 736 32
WIRE 704 80 624 80
WIRE 624 112 624 80
WIRE 560 128 560 32
WIRE 592 128 560 128
WIRE 736 144 656 144
WIRE 864 144 736 144
WIRE 960 144 928 144
WIRE 1120 144 960 144
WIRE 1248 144 1200 144
WIRE 592 160 512 160
WIRE 512 176 512 160
WIRE 512 176 384 176
WIRE 1248 176 1248 144
WIRE 704 192 704 80
WIRE 752 192 704 192
WIRE 960 256 960 224
WIRE 1248 256 1248 240
WIRE 1248 256 960 256
WIRE 384 272 384 256
WIRE 512 272 512 240
WIRE 512 272 384 272
WIRE 752 272 752 192
WIRE 960 288 960 256
WIRE 384 336 384 272
WIRE 624 400 624 176
WIRE 752 400 752 352
WIRE 752 400 624 400
FLAG 480 -80 0
FLAG 960 288 0
FLAG 384 336 0
SYMBOL res 944 128 R0
SYMATTR InstName R1
SYMATTR Value 1Meg
SYMBOL cap 928 128 R90
WINDOW 0 0 32 VBottom 2
WINDOW 3 32 32 VTop 2
SYMATTR InstName C2
SYMATTR Value 10n
SYMBOL res 544 -80 R0
SYMATTR InstName R3
SYMATTR Value 1k
SYMBOL res 720 48 R0
SYMATTR InstName R4
SYMATTR Value 2k
SYMBOL voltage 752 256 R0
WINDOW 123 0 0 Left 0
WINDOW 39 0 0 Left 0
SYMATTR InstName V1
SYMATTR Value 5
SYMBOL voltage 384 160 R0
WINDOW 123 24 124 Left 2
WINDOW 39 0 0 Left 0
SYMATTR Value2 AC 1
SYMATTR InstName V2
SYMATTR Value ""
SYMBOL Opamps\\OP213 624 80 R0
SYMATTR InstName U1
SYMBOL cap 1232 176 R0
SYMATTR InstName C1
SYMATTR Value 1n
SYMBOL res 1104 128 M90
WINDOW 0 0 56 VBottom 2
WINDOW 3 32 56 VTop 2
SYMATTR InstName R2
SYMATTR Value 4.7k
SYMBOL cap 528 240 R180
WINDOW 0 24 56 Left 2
WINDOW 3 24 8 Left 2
SYMATTR InstName C3
SYMATTR Value 1µ
TEXT 16 -112 Left 2 !.ac oct 300 0.1 1Meg
